/*--------------------------------*- C++ -*----------------------------------*\
| =========                 |                                                 |
| \\      /  F ield         | OpenFOAM: The Open Source CFD Toolbox           |
|  \\    /   O peration     | Version:  v2206                                 |
|   \\  /    A nd           | Website:  www.openfoam.com                      |
|    \\/     M anipulation  |                                                 |
\*---------------------------------------------------------------------------*/
FoamFile
{
    version     2.0;
    format      ascii;
    class       volScalarField;
    object      T;
}
// * * * * * * * * * * * * * * * * * * * * * * * * * * * * * * * * * * * * * //

dimensions      [0 0 0 1 0 0 0];

internalField   uniform 300;

boundaryField
{
    leftWall
    {
        type            zeroGradient;
    }

    rightWall
    {
        type            zeroGradient;
    }

    topWall
    {
        type            fixedValue;
        value           uniform 350;
    }


    bottomWall
    {
        type            fixedValue;
        value           uniform 300;
    }

    frontAndBack
    {
	type            zeroGradient;
    }


    #includeEtc "caseDicts/setConstraintTypes"
}


// ************************************************************************* //
